data_image0
_chemical_formula_structural       Co128C
_chemical_formula_sum              "Co128 C1"
_cell_length_a       13.0139
_cell_length_b       16.7414
_cell_length_c       31.7554
_cell_angle_alpha    90
_cell_angle_beta     90
_cell_angle_gamma    102.832

_space_group_name_H-M_alt    "P 1"
_space_group_IT_number       1

loop_
  _space_group_symop_operation_xyz
  'x, y, z'

loop_
  _atom_site_type_symbol
  _atom_site_label
  _atom_site_symmetry_multiplicity
  _atom_site_fract_x
  _atom_site_fract_y
  _atom_site_fract_z
  _atom_site_occupancy
  Co  Co1       1.0  0.91248  0.06047  0.40938  1.0000
  Co  Co2       1.0  0.66267  0.81124  0.40939  1.0000
  Co  Co3       1.0  0.41232  0.06054  0.40945  1.0000
  Co  Co4       1.0  0.16221  0.81140  0.40959  1.0000
  Co  Co5       1.0  0.66225  0.31032  0.40959  1.0000
  Co  Co6       1.0  0.16200  0.31024  0.40970  1.0000
  Co  Co7       1.0  0.41221  0.56063  0.40973  1.0000
  Co  Co8       1.0  0.91207  0.56073  0.40976  1.0000
  Co  Co9       1.0  0.77131  0.94525  0.42430  1.0000
  Co  Co10      1.0  0.27097  0.94536  0.42439  1.0000
  Co  Co11      1.0  0.52128  0.19476  0.42446  1.0000
  Co  Co12      1.0  0.02093  0.19469  0.42447  1.0000
  Co  Co13      1.0  0.52181  0.69526  0.42447  1.0000
  Co  Co14      1.0  0.02113  0.69535  0.42450  1.0000
  Co  Co15      1.0  0.77138  0.44473  0.42459  1.0000
  Co  Co16      1.0  0.27139  0.44470  0.42462  1.0000
  Co  Co17      1.0  0.84002  0.82220  0.43024  1.0000
  Co  Co18      1.0  0.58993  0.07170  0.43027  1.0000
  Co  Co19      1.0  0.09014  0.07177  0.43034  1.0000
  Co  Co20      1.0  0.33976  0.82235  0.43039  1.0000
  Co  Co21      1.0  0.58998  0.57206  0.43047  1.0000
  Co  Co22      1.0  0.33968  0.32156  0.43056  1.0000
  Co  Co23      1.0  0.83972  0.32160  0.43058  1.0000
  Co  Co24      1.0  0.08993  0.57227  0.43067  1.0000
  Co  Co25      1.0  0.70335  0.70288  0.44699  1.0000
  Co  Co26      1.0  0.70289  0.20226  0.44706  1.0000
  Co  Co27      1.0  0.20292  0.70287  0.44711  1.0000
  Co  Co28      1.0  0.20281  0.20229  0.44718  1.0000
  Co  Co29      1.0  0.45317  0.45231  0.44721  1.0000
  Co  Co30      1.0  0.45297  0.95252  0.44722  1.0000
  Co  Co31      1.0  0.95319  0.95263  0.44722  1.0000
  Co  Co32      1.0  0.95310  0.45237  0.44724  1.0000
  Co  Co33      1.0  0.77134  0.08194  0.45107  1.0000
  Co  Co34      1.0  0.52123  0.83174  0.45129  1.0000
  Co  Co35      1.0  0.27160  0.08208  0.45140  1.0000
  Co  Co36      1.0  0.77100  0.58173  0.45144  1.0000
  Co  Co37      1.0  0.02148  0.83192  0.45148  1.0000
  Co  Co38      1.0  0.27107  0.58176  0.45159  1.0000
  Co  Co39      1.0  0.52103  0.33129  0.45165  1.0000
  Co  Co40      1.0  0.02108  0.33133  0.45171  1.0000
  Co  Co41      1.0  0.63416  0.96233  0.47139  1.0000
  Co  Co42      1.0  0.38432  0.71300  0.47139  1.0000
  Co  Co43      1.0  0.63430  0.46240  0.47153  1.0000
  Co  Co44      1.0  0.13417  0.46250  0.47156  1.0000
  Co  Co45      1.0  0.38423  0.21246  0.47157  1.0000
  Co  Co46      1.0  0.88415  0.21237  0.47162  1.0000
  Co  Co47      1.0  0.88457  0.71306  0.47163  1.0000
  Co  Co48      1.0  0.13438  0.96256  0.47165  1.0000
  Co  Co49      1.0  0.70462  0.84142  0.47855  1.0000
  Co  Co50      1.0  0.95426  0.09108  0.47856  1.0000
  Co  Co51      1.0  0.45417  0.09105  0.47860  1.0000
  Co  Co52      1.0  0.20452  0.84146  0.47869  1.0000
  Co  Co53      1.0  0.45429  0.59153  0.47870  1.0000
  Co  Co54      1.0  0.95436  0.59161  0.47871  1.0000
  Co  Co55      1.0  0.70424  0.34110  0.47874  1.0000
  Co  Co56      1.0  0.20419  0.34111  0.47881  1.0000
  Co  Co57      1.0  0.56479  0.72451  0.49721  1.0000
  Co  Co58      1.0  0.31473  0.47406  0.49724  1.0000
  Co  Co59      1.0  0.31473  0.97443  0.49727  1.0000
  Co  Co60      1.0  0.81458  0.97456  0.49728  1.0000
  Co  Co61      1.0  0.06485  0.72461  0.49729  1.0000
  Co  Co62      1.0  0.06461  0.22430  0.49731  1.0000
  Co  Co63      1.0  0.56461  0.22435  0.49732  1.0000
  Co  Co64      1.0  0.81472  0.47419  0.49733  1.0000
  Co  Co65      1.0  0.63703  0.59900  0.50264  1.0000
  Co  Co66      1.0  0.88717  0.84888  0.50265  1.0000
  Co  Co67      1.0  0.38712  0.84893  0.50265  1.0000
  Co  Co68      1.0  0.63716  0.09871  0.50269  1.0000
  Co  Co69      1.0  0.38687  0.34864  0.50269  1.0000
  Co  Co70      1.0  0.13701  0.09881  0.50273  1.0000
  Co  Co71      1.0  0.13700  0.59919  0.50273  1.0000
  Co  Co72      1.0  0.88699  0.34872  0.50276  1.0000
  Co  Co73      1.0  0.24755  0.73219  0.52116  1.0000
  Co  Co74      1.0  0.74758  0.73221  0.52124  1.0000
  Co  Co75      1.0  0.99752  0.48181  0.52125  1.0000
  Co  Co76      1.0  0.49737  0.48173  0.52129  1.0000
  Co  Co77      1.0  0.24721  0.23186  0.52129  1.0000
  Co  Co78      1.0  0.99758  0.98228  0.52137  1.0000
  Co  Co79      1.0  0.49748  0.98227  0.52142  1.0000
  Co  Co80      1.0  0.74724  0.23193  0.52143  1.0000
  Co  Co81      1.0  0.56748  0.86089  0.52830  1.0000
  Co  Co82      1.0  0.31739  0.11077  0.52832  1.0000
  Co  Co83      1.0  0.56716  0.36021  0.52834  1.0000
  Co  Co84      1.0  0.31750  0.61080  0.52838  1.0000
  Co  Co85      1.0  0.06756  0.86081  0.52842  1.0000
  Co  Co86      1.0  0.81753  0.61087  0.52848  1.0000
  Co  Co87      1.0  0.81757  0.11089  0.52855  1.0000
  Co  Co88      1.0  0.06736  0.36029  0.52858  1.0000
  Co  Co89      1.0  0.43077  0.74197  0.54826  1.0000
  Co  Co90      1.0  0.93071  0.74202  0.54832  1.0000
  Co  Co91      1.0  0.18077  0.49155  0.54836  1.0000
  Co  Co92      1.0  0.43037  0.24136  0.54850  1.0000
  Co  Co93      1.0  0.68069  0.49159  0.54853  1.0000
  Co  Co94      1.0  0.18030  0.99126  0.54859  1.0000
  Co  Co95      1.0  0.93043  0.24152  0.54865  1.0000
  Co  Co96      1.0  0.68032  0.99138  0.54883  1.0000
  Co  Co97      1.0  0.49857  0.62090  0.55272  1.0000
  Co  Co98      1.0  0.99875  0.12078  0.55276  1.0000
  Co  Co99      1.0  0.49854  0.12062  0.55278  1.0000
  Co  Co100     1.0  0.99857  0.62093  0.55281  1.0000
  Co  Co101     1.0  0.24896  0.87094  0.55284  1.0000
  Co  Co102     1.0  0.24878  0.37039  0.55285  1.0000
  Co  Co103     1.0  0.74886  0.87103  0.55289  1.0000
  Co  Co104     1.0  0.74915  0.37051  0.55260  1.0000
  Co  Co105     1.0  0.36175  0.50123  0.56913  1.0000
  Co  Co106     1.0  0.61206  0.75136  0.56900  1.0000
  Co  Co107     1.0  0.11224  0.75145  0.56912  1.0000
  Co  Co108     1.0  0.86212  0.50122  0.56919  1.0000
  Co  Co109     1.0  0.10661  0.25161  0.57332  1.0000
  Co  Co110     1.0  0.36148  0.00195  0.56937  1.0000
  Co  Co111     1.0  0.61169  0.25122  0.56931  1.0000
  Co  Co112     1.0  0.86150  0.00141  0.56915  1.0000
  Co  Co113     1.0  0.17969  0.62816  0.57532  1.0000
  Co  Co114     1.0  0.67965  0.62860  0.57532  1.0000
  Co  Co115     1.0  0.43443  0.38093  0.57542  1.0000
  Co  Co116     1.0  0.42946  0.87838  0.57527  1.0000
  Co  Co117     1.0  0.92989  0.37812  0.57537  1.0000
  Co  Co118     1.0  0.92906  0.87762  0.57538  1.0000
  Co  Co119     1.0  0.17899  0.12335  0.57778  1.0000
  Co  Co120     1.0  0.67945  0.12812  0.57543  1.0000
  Co  Co121     1.0  0.54060  0.51363  0.59011  1.0000
  Co  Co122     1.0  0.03981  0.51228  0.59013  1.0000
  Co  Co123     1.0  0.28997  0.76208  0.59014  1.0000
  Co  Co124     1.0  0.78898  0.76193  0.59037  1.0000
  Co  Co125     1.0  0.29559  0.26667  0.59314  1.0000
  Co  Co126     1.0  0.03648  0.00923  0.59038  1.0000
  Co  Co127     1.0  0.53925  0.01222  0.59038  1.0000
  Co  Co128     1.0  0.78950  0.26222  0.59041  1.0000
  C   C1        1.0  0.17561  0.20553  0.61257  1.0000
